# generated using pymatgen
data_FeCO3
_symmetry_space_group_name_H-M   'P 1'
_cell_length_a   4.99733333
_cell_length_b   4.99733333
_cell_length_c   18.11400000
_cell_angle_alpha   90.00000000
_cell_angle_beta   90.00000000
_cell_angle_gamma   120.00000000
_symmetry_Int_Tables_number   1
_chemical_formula_structural   FeCO3
_chemical_formula_sum   'Fe6 C6 O18'
_cell_volume   391.76139075
_cell_formula_units_Z   6
loop_
 _symmetry_equiv_pos_site_id
 _symmetry_equiv_pos_as_xyz
  1  'x, y, z'
loop_
 _atom_site_type_symbol
 _atom_site_label
 _atom_site_symmetry_multiplicity
 _atom_site_fract_x
 _atom_site_fract_y
 _atom_site_fract_z
 _atom_site_occupancy
  Fe  Fe1  1  0.666667  0.333333  0.833333  1
  Fe  Fe2  1  0.333333  0.666667  0.666667  1
  Fe  Fe3  1  0.333333  0.666667  0.166667  1
  Fe  Fe4  1  1.000000  0.000000  0.000000  1
  Fe  Fe5  1  0.000000  1.000000  0.500000  1
  Fe  Fe6  1  0.666667  0.333333  0.333333  1
  C  C7  1  0.000000  0.000000  0.750000  1
  C  C8  1  0.666667  0.333333  0.583333  1
  C  C9  1  0.666667  0.333333  0.083333  1
  C  C10  1  0.333333  0.666667  0.916667  1
  C  C11  1  0.333333  0.666667  0.416667  1
  C  C12  1  0.000000  0.000000  0.250000  1
  O  O13  1  0.277785  0.000000  0.750000  1
  O  O14  1  0.000000  0.277785  0.750000  1
  O  O15  1  0.722215  0.722215  0.750000  1
  O  O16  1  0.388881  0.333333  0.583333  1
  O  O17  1  0.666667  0.055548  0.583333  1
  O  O18  1  0.944452  0.611119  0.583333  1
  O  O19  1  0.944452  0.333333  0.083333  1
  O  O20  1  0.666667  0.611119  0.083333  1
  O  O21  1  0.388881  0.055548  0.083333  1
  O  O22  1  0.055548  0.666667  0.916667  1
  O  O23  1  0.333333  0.388881  0.916667  1
  O  O24  1  0.611119  0.944452  0.916667  1
  O  O25  1  0.611119  0.666667  0.416667  1
  O  O26  1  0.333333  0.944452  0.416667  1
  O  O27  1  0.055548  0.388881  0.416667  1
  O  O28  1  0.722215  0.000000  0.250000  1
  O  O29  1  0.000000  0.722215  0.250000  1
  O  O30  1  0.277785  0.277785  0.250000  1
